** input file created by OLTranSim
**
** PARTS
**
*Part, name=NAS-180k-dry
*Node
      1,      167730,        2520,           0
      2,      167730,           0,           0
      3,      167730,        5880,           0
      4,      167730,        9240,           0
      5,      167730,       12600,           0
      6,      167730,       15960,           0
      7,      167730,       23000,        9510
     12,      167730,        2520,        2470
     13,      167730,           0,        2470
     14,      167730,        5880,        2470
     15,      167730,        9240,        2470
     16,      167730,       12600,        2470
     17,      167730,       15960,        2470
     24,      167730,       21240,        7750
     27,      167730,  22424.6992,  539.299988
     28,      167730,  22999.5996,  3425.68994
     29,      167730,       23000,   6467.8501
     30,      167730,  19262.8008,-0.102601998
     35,      167730,       19480,        5990
     36,      167730,       17720,        4230
** ... 47740 like lines cut
*Element, type=S4I
8820638,  11467,   9394,   9395,  11468
8820639,   9395,   6440,   9396,  11468
8820640,   9396,   9397,  11467,  11468
8820641,   9397,   6550,   9393,  11467
8820642,   9393,   6460,   9394,  11467
8820643,  11469,   9399,   9400,  11470
8820644,   9400,   6439,   9401,  11470
8820645,   9401,   9402,  11469,  11470
8820646,   9402,   6546,   9398,  11469
8820647,   9398,   6457,   9399,  11469
8820648,  11471,   9404,   9405,  11472
8820649,   9405,   6434,   9406,  11472
8820650,   9406,   9407,  11471,  11472
8820651,   9407,   6526,   9403,  11471
8820652,   9403,   6443,   9404,  11471
8820653,  11473,   9409,   9410,  11474
8820654,   9410,   6442,   9411,  11474
8820655,   9411,   9412,  11473,  11474
8820656,   9412,   6558,   9408,  11473
8820657,   9408,   6466,   9409,  11473
** ... 48679 like lines cut
*Element, type=B33
8826475,   5160,  11416
8826476,  11416,  11415
8826477,  11415,   6558
8826478,   6558,  11435
8826479,  11435,  11434
8826480,  11434,   6554
8826481,   6554,  11437
8826482,  11437,  11436
8826483,  11436,   6550
8826484,   6550,  11439
8826485,  11439,  11438
8826486,  11438,   6546
8826487,   6546,  11441
8826488,  11441,  11440
8826489,  11440,   6542
8826490,   6542,  11443
8826491,  11443,  11442
8826492,  11442,  11428
8826493,  11428,   6474
8826494,   6525,   9958
** ... 2199 like lines cut
*Element, type=T3D2
8872790,  57692,  57681
8872791,  57680,  57692
8872792,  57693,  57683
8872793,  57682,  57693
8872794,  57691,  57685
8872795,  57684,  57691
8872796,  57691,  57687
8872797,  57686,  57691
8872798,  57677,  57695
8872799,  57676,  57695
8872800,  57679,  57695
8872801,  57678,  57695
8872802,  57675,  57695
8872803,  57674,  57695
8872804,  57672,  57695
8872805,  57673,  57695
*Element, type=S3I
8826313,  13121,   8704,   8707
8826314,   6460,  11124,  10849
8826315,   6544,  10038,  11126
8826316,   6297,  10948,  11127
8826317,  11129,   8703,   9909
8826318,  11128,   9910,   6262
8826319,   6460,   9393,  11124
8826320,  13124,   8703,  11129
8826321,   8701,  13126,  11133
8826322,   1529,  11135,   9818
8826323,   6466,   9408,  11137
8826324,  11139,   8725,   9914
8826325,  11138,   9913,   6266
8826326,   8690,  13128,  11126
8826327,  13129,   8692,  11142
8826328,   6457,   9398,  11147
8826329,  11142,   8692,   9902
8826330,  11143,   9901,   6260
8826331,   6296,  10934,  11141
8826332,   6457,  11147,  10846
** ... 326 like lines cut
*Elset, elset=Set-19, generate
8826475, 8826493,       1
*Elset, elset=Set-20, generate
8826494, 8826522,       1
*Elset, elset=Set-45, generate
8826523, 8826551,       1
*Elset, elset=Set-52, generate
8826552, 8826609,       1
*Elset, elset=Set-404, generate
8826610, 8826638,       1
*Elset, elset=Set-405, generate
8820728, 8820925,       1
*Elset, elset=Set-406, generate
8820926, 8821803,       1
*Elset, elset=Set-407, generate
8821804, 8821839,       1
*Elset, elset=Set-408, generate
8821840, 8822019,       1
*Elset, elset=Set-409, generate
8822020, 8822235,       1
*Elset, elset=Set-410, generate
8826639, 8826665,       1
*Elset, elset=Set-411, generate
8826666, 8826692,       1
*Elset, elset=Set-412, generate
8826693, 8826719,       1
*Elset, elset=Set-413
8822236,8822237,8822238,8822239,8822240,8822241,8822242,8822243,8822244,8822245,8822246,8822247,8822248,8822249,8822250,8822251
8822252,8822253,8822254,8822255,8822256,8822257,8822258,8822259,8822260,8822261,8822262,8822263,8822264,8822265,8822266,8822267
8822268,8822269,8822270,8822271,8822272,8822273,8822274,8822275,8822276,8822277,8822278,8822279,8822280,8822281,8822282,8822283
8822284,8822285,8822286,8822287,8822288,8822289,8822290,8822291,8822292,8822293,8822294,8822295,8822296,8822297,8822298,8822299
8822300,8822301,8822302,8822303,8822304,8822314,8822315,8822316,8822317,8822318,8822319,8822323,8822324,8822325,8822326,8822327
8822328,8822329,8822330,8822331,8822332,8822333,8822334,8822335,8822336,8822337,8822338,8822339,8822340,8822341,8822342,8822343
8822344,8822345,8822346,8822347,8822348,8822349,8822350,8822351,8822352,8822353,8822354,8822355,8822356,8822357,8822358,8822359
8822361,8822363,8822383,8822384,8822385,8822386,8822387,8822388,8822389,8822390,8822391,8822392,8822393,8822394,8822395,8822396
8822397,8822398,8822399,8822400,8822401,8822402,8822403,8822404,8822405,8822406,8822407,8822408,8822409,8822420,8822421,8822423
8822424,8822426,8822427,8822428,8822429,8822430,8822431,8822432,8822433,8822434,8822435,8822436,8822437,8822438,8822439,8822440
8822441,8822442,8822443,8822444,8822445,8822446,8822447,8822448,8822449,8822450,8822451,8822452,8822453,8822454,8822455,8822456
8822457,8822458,8822459,8822460,8822461,8822462,8822463,8822467,8822468,8822469,8822488,8822489,8822490,8822491,8822492,8822493
8822494,8822495,8822496,8822497,8822498,8822499,8822500,8822501,8822502,8822503,8822504,8822505,8822506,8822507,8822508,8822509
8822510,8822511,8822512,8822513,8822514,8822524,8822525,8822526,8822527,8822528,8822529,8822530,8822531,8822532,8822542,8822543
8822544,8822545,8822546,8822547,8822548,8822549,8822550,8822569,8822571,8822573,8822575,8822576,8822577,8822578,8822579,8822580
8822581,8822582,8822583,8822584,8822585,8822586,8822587,8822588,8822589,8822590,8822591,8822592,8822593,8822594,8822595,8822596
8822597,8822598,8822599,8822600,8822601,8822602,8822603,8822604,8822605,8822606,8822607,8822608,8822609,8822610,8822611,8822612
8822613,8822614,8822615,8822616,8822620,8822621,8822622,8822623,8822624,8822625,8822635,8822636,8822637,8822638,8822639,8822640
8822641,8822642,8822643,8822644,8822645,8822646,8822647,8822648,8822649,8822650,8822651,8822652,8822653,8822654,8822655,8822656
8822657,8822658,8822659,8822660,8822661,8822662,8822663,8822664,8822665,8822666,8822667,8822668,8822669,8822670,8822671,8822672
** ... 568 like lines cut
*Elset, elset=Set-414, generate
8822932, 8823018,       1
*Elset, elset=Set-415, generate
8823019, 8823192,       1
*Elset, elset=Set-423
8823193,8823194,8823195,8823196,8823197,8823198,8823199,8823200,8823201,8823229,8823230,8823231,8823232,8823233,8823234,8823235
8823236,8823237,8823238,8823239,8823240,8823241,8823242,8823243,8823244,8823245,8823246,8823265,8823266,8823267,8823268,8823269
8823270,8823271,8823272,8823273,8823274,8823275,8823276,8823277,8823278,8823279,8823280,8823281,8823282,8823292,8823293,8823294
8823295,8823296,8823297,8823298,8823299,8823300,8823301,8823302,8823303,8823304,8823305,8823306,8823307,8823308,8823309,8823310
8823311,8823312,8823313,8823314,8823315,8823316,8823317,8823318,8823319,8823320,8823321,8823322,8823323,8823324,8823325,8823326
8823327,8823328,8823329,8823330,8823331,8823332,8823333,8823334,8823335,8823336,8823337,8823338,8823339,8823340,8823341,8823342
8823343,8823344,8823345,8823346,8823347,8823348,8823349,8823350,8823351,8823352,8823353,8823354,8823422,8823423,8823425,8823426
8823428,8823429,8823431,8823432,8823436,8823437,8823439,8823440,8823445,8823446,8823447,8823448,8823449,8823450,8823451,8823452
8823453,8823454,8823455,8823456,8823457,8823458,8823459,8823460,8823461,8823462,8823463,8823464,8823465,8823466,8823467,8823468
8823469,8823470,8823471,8823472,8823473,8823474,8823475,8823476,8823477,8823478,8823479,8823480,8823481,8823482,8823483,8823484
8823485,8823486,8823487,8823488,8823489,8823490,8823491,8823492,8823493,8823494,8823495,8823496,8823497,8823498,8823499,8823500
8823501,8823502,8823503,8823504,8823505,8823506,8823507,8823508,8823509,8823510,8823511,8823512,8823513,8823514,8823515,8823516
8823517,8823518,8823519,8823520,8823521,8823522,8823523,8823524,8823525,8823526,8823527,8823528,8823529,8823530,8823531,8823532
8823533,8823534,8823535,8823536,8823537,8823538,8823539,8823540,8823541,8823542,8823543,8823548,8823549,8823551,8823552,8823554
8823555,8823557,8823558,8823562,8823563,8823564,8823565,8823566,8823567,8823568,8823569,8823570,8823589,8823590,8823591,8823592
8823593,8823594,8823595,8823596,8823597,8823598,8823599,8823600,8823601,8823602,8823603,8823604,8823605,8823606,8823620,8823621
8823623,8823624,8828818,8828819,8828820,8828821,8828822,8828823,8828824,8828825,8828826,8828827,8828828,8828829,8828830,8828831
8828832,8828833,8828834,8828835,8828836,8828837,8828838,8828839,8828840,8828841,8828842,8828843,8828844,8828845,8828846,8828847
8828848,8828849,8828850,8828851,8828852,8828853,8828854,8828855,8828856,8828857,8828858,8828859,8828860,8828861,8828862,8828863
8828864,8828865,8828866,8828867,8828868,8828869,8828870,8828871,8828872,8828873,8828874,8828875,8828876,8828877,8828878,8828879
** ... 457 like lines cut
*Elset, elset=Set-424
8823626,8823627,8823629,8823630,8823634,8823635,8823636,8823637,8823638,8823639,8823640,8823641,8823642,8823643,8823644,8823645
8823646,8823647,8823648,8823649,8823650,8823651,8823652,8823653,8823654,8823655,8823656,8823657,8823658,8823659,8823660,8823661
8823662,8823663,8823664,8823665,8823666,8823667,8823668,8823669,8823670,8823671,8823672,8823673,8823674,8823675,8823676,8823677
8823678,8823679,8823680,8823681,8823682,8823683,8823684,8823685,8823686,8823687,8823688,8823689,8823690,8823691,8823692,8823693
8823694,8823695,8823696,8823697,8823698,8823699,8823700,8823701,8823702,8823703,8823704,8823705,8823709,8823710,8823712,8823713
8867221,8867222,8867223,8867234,8867235,8867236,8867519,8867523,8867526,8867530,8867568,8867569,8867573,8867575
*Elset, elset=Set-425
8823718,8823719,8823721,8823722,8823728,8823729,8823731,8823732,8823737,8823738,8823740,8823741,8823743,8823744,8823746,8823747
8823751,8823752,8823753,8823754,8823755,8823756,8823757,8823758,8823759,8823763,8823764,8823766,8823767,8823769,8823770,8823771
8823772,8823773,8823774,8823775,8823776,8823777,8823778,8823779,8823780,8823781,8823782,8823783,8823784,8823785,8823786,8823787
8823788,8823789,8823790,8823791,8823792,8823793,8823794,8823795,8823796,8823797,8823798,8823799,8823800,8823801,8823802,8823803
8823804,8823805,8823806,8823808,8823809,8823817,8823818,8823820,8823821,8823827,8823828,8823830,8823831,8823832,8823833,8823834
8823835,8823836,8823837,8823838,8823839,8823840,8867150,8867151,8867152,8867153,8867154,8867155,8867184,8867185,8867186,8867187
8867188,8867189,8867197,8867198,8867199,8867200,8867201,8867202,8867252,8867253,8867254,8867255,8867256,8867257,8867492,8867493
8867494,8867495,8867504,8867505,8867508,8867509,8867511,8867512,8867515,8867516,8867532,8867533,8867536,8867537,8867578,8867580
8867583,8867584,8867588,8867589,8867593,8867594,8867598,8867600,8867603,8867605,8867608,8867609,8867613,8867615
*Elset, elset=Set-433, generate
8826720, 8826777,       1
*Elset, elset=Set-434, generate
8826778, 8826806,       1
*Elset, elset=Set-435, generate
8823841, 8823912,       1
*Elset, elset=Set-436, generate
8823913, 8823984,       1
*Elset, elset=Set-437, generate
8823985, 8824128,       1
*Elset, elset=Set-438, generate
8824129, 8824320,       1
*Elset, elset=Set-439, generate
8824321, 8824536,       1
*Elset, elset=Set-440, generate
8826807, 8827040,       1
*Elset, elset=Set-441, generate
8827041, 8827418,       1
*Elset, elset=Set-442
8820638,8820639,8820640,8820641,8820642,8820643,8820644,8820645,8820646,8820647,8820648,8820649,8820650,8820651,8820652,8820653
8820654,8820655,8820656,8820657,8820658,8820659,8820660,8820661,8820662,8820663,8820664,8820665,8820666,8820667,8820668,8820669
8820670,8820671,8820672,8820673,8820674,8820675,8820676,8820677,8820678,8820679,8820680,8820681,8820682,8820683,8820684,8820685
8820686,8820687,8820688,8820689,8820690,8820691,8820692,8820693,8820694,8820695,8820696,8820697,8820698,8820699,8820700,8820701
8820702,8820703,8820704,8820705,8820706,8820707,8820708,8820709,8820710,8820711,8820712,8820713,8820714,8820715,8820716,8820717
8820718,8820719,8820720,8820721,8820722,8820723,8820724,8820725,8820726,8820727,8824537,8824538,8824539,8824540,8824541,8824542
8824543,8824544,8824545,8824546,8824547,8824548,8824549,8824550,8824551,8824552,8824553,8824554,8824555,8824556,8824557,8824558
8824559,8824560,8824561,8824562,8824563,8824564,8824565,8824566,8824567,8824568,8824569,8824570,8824571,8824572,8824573,8824574
8824575,8824576,8824577,8824578,8824579,8824580,8824581,8824582,8824583,8824584,8824585,8824586,8824587,8824588,8824589,8824590
8824591,8824592,8824593,8824594,8824595,8824596,8824597,8824598,8824599,8824600,8824601,8824602,8824603,8824604,8824605,8824606
8824607,8824608,8824609,8824610,8824611,8824612,8824613,8824614,8824615,8824616,8824617,8824618,8824619,8824620,8824621,8824622
8824623,8824624,8824625,8824626,8824627,8824628,8824629,8824630,8824631,8824632,8824633,8824634,8824635,8824636,8824637,8824638
8824639,8824640,8824641,8824642,8824643,8824644,8824645,8824646,8824647,8824648,8824649,8824650,8824651,8824652,8824653,8824654
8824655,8824656,8824657,8824658,8824659,8824660,8824661,8824662,8824663,8824664,8824665,8824666,8824667,8824668,8824669,8824670
8824671,8824672,8824673,8824674,8824675,8824676,8824677,8824678,8824679,8824680,8824681,8824682,8824683,8824684,8824685,8824686
8824687,8824688,8824689,8824690,8824691,8824692,8824693,8824694,8824695,8824696,8824697,8824698,8824699,8824700,8824701,8824702
8824703,8824704,8824705,8824706,8824707,8824708,8824709,8824710,8824711,8824712,8824713,8824714,8824715,8824716,8824717,8824718
8824719,8824720,8824721,8824722,8824723,8824724,8824725,8824726,8824727,8824728,8824729,8824730,8824731,8824732,8824733,8824734
8824735,8824736,8824737,8824738,8824739,8824740,8824741,8824742,8824743,8824744,8824745,8824746,8824747,8824748,8824749,8824750
8824751,8824752,8824753,8824754,8824755,8824756,8824757,8824758,8824759,8824760,8824761,8824762,8824763,8824764,8824765,8824766
** ... 31 like lines cut
*Elset, elset=Set-444
8825095,8825096,8825097,8825098,8825099,8825100,8825122,8825123,8825124,8825125,8825126,8825127,8825128,8825129,8825130,8825131
8825132,8825133,8825134,8825135,8825136,8825137,8825138,8825139,8825140,8825141,8825142,8825143,8825144,8825145,8825146,8825147
8825148,8825149,8825150,8825151,8825152,8825153,8825154,8825155,8825156,8825157,8825158,8825159,8825160,8825161,8825162,8825163
8825164,8825165,8825166,8825176,8825177,8825178,8825179,8825180,8825181,8825182,8825183,8825184,8825194,8825195,8825196,8825197
8825198,8825199,8825200,8825201,8825202,8825203,8825204,8825205,8825206,8825207,8825208,8825209,8825210,8825211,8825212,8825213
8825214,8825215,8825216,8825217,8825218,8825219,8825220,8825221,8825222,8825223,8825224,8825225,8825226,8825227,8825228,8825229
8825230,8825231,8825232,8825233,8825234,8825235,8825236,8825237,8825238,8825239,8825240,8825241,8825242,8825243,8825244,8825245
8825246,8825247,8825248,8825249,8825250,8825251,8825252,8825253,8825254,8825255,8825256,8825257,8825258,8825259,8825260,8825261
8825262,8825263,8825264,8825265,8825266,8825267,8825268,8825269,8825270,8825271,8825275,8825276,8825277,8825278,8825279,8825280
8825281,8825282,8825283,8825293,8825294,8825295,8825296,8825297,8825298,8825299,8825300,8825301,8825329,8825331,8825333,8825335
8825337,8825339,8825350,8825351,8825352,8825353,8825354,8825355,8825359,8825360,8825361,8825365,8825366,8825367,8825371,8825372
8825373,8825377,8825378,8825379,8825389,8825390,8825391,8825392,8825393,8825394,8825395,8825396,8825397,8825398,8825400,8825402
8825413,8825414,8825415,8825416,8825417,8825418,8825419,8825420,8825421,8825422,8825424,8825426,8825428,8825429,8825430,8825431
8825432,8825433,8825435,8825436,8825438,8825439,8825441,8825442,8825443,8825444,8825445,8825446,8825447,8825448,8825449,8825450
8825451,8825452,8825453,8825454,8825455,8825456,8825457,8825458,8825459,8825460,8825461,8825462,8825463,8825464,8825465,8825466
8825467,8825468,8825469,8825470,8825471,8825472,8825473,8825474,8825475,8825476,8825477,8825478,8825479,8825480,8825481,8825482
8825483,8825484,8825485,8825486,8825487,8825488,8825489,8825490,8825491,8825492,8825493,8825494,8825495,8825496,8825497,8825498
8825499,8825500,8825501,8825502,8825503,8825504,8825505,8825506,8825507,8825508,8825509,8825510,8825511,8825512,8825513,8825514
8825524,8825525,8825526,8825527,8825528,8825529,8825530,8825531,8825532,8825542,8825543,8825544,8825545,8825546,8825547,8825548
8825549,8825550,8825560,8825561,8825562,8825563,8825564,8825565,8825566,8825567,8825568,8825588,8825589,8825591,8825592,8825594
** ... 1467 like lines cut
*Elset, elset=Set-445, generate
8827419, 8827472,       1
*Elset, elset=Set-446
8827473,8827474,8827475,8827476,8827477,8827478,8827479,8827480,8827481,8827482,8827483,8827484,8827485,8827486,8827487,8827488
8827489,8827490,8827491,8827492,8827493,8827494,8827495,8827496,8827497,8827498,8827499,8827500,8827501,8827502,8827503,8827504
8827505,8827506,8827507,8827508,8827509,8827510,8827511,8827512,8827513,8827514,8827515,8827516,8827517,8827518,8827519,8827520
8827521,8827522,8827523,8827524,8827525,8827526,8827527,8827528,8827529,8827530,8827531,8827532,8827533,8827534,8827535,8827536
8827537,8827538,8827539,8827540,8827541,8827542,8827543,8827544,8827545,8827546,8827547,8827548,8827549,8827550,8827551,8827552
8827553,8827554,8827555,8827556,8827557,8827558,8827559,8827566,8827567,8827568,8827589,8827590,8827591,8827592,8827593,8827594
8827595,8827596,8827597,8827598,8827599,8827600,8827601,8827602,8827603,8827604,8827605,8827606,8827607,8827608,8827609,8827610
8827611,8827612,8827613,8827614,8827615,8827616,8827617,8827638,8827639,8827640
*Elset, elset=Set-447
8827560,8827561,8827562,8827563,8827564,8827565,8827569,8827570,8827571,8827572,8827573,8827574,8827575,8827576,8827577,8827578
8827579,8827580,8827581,8827582,8827583,8827584,8827585,8827586,8827587,8827588,8827618,8827619,8827620,8827621,8827622,8827623
8827624,8827625,8827626,8827627,8827628,8827629,8827630,8827631,8827632,8827633,8827634,8827635,8827636,8827637,8827641,8827642
8827643,8827644,8827645,8827646,8827654,8827655,8827656,8827657,8827658,8827659,8827660,8827661,8827662,8827663,8827664,8827665
8827666,8827667,8827668,8827683,8827684,8827685,8827686,8827687,8827688,8827689,8827690,8827691,8827692,8827693,8827694,8827695
8827696,8827697,8827712,8827713,8827714,8827715,8827716,8827717,8827718,8827719,8827720,8827721,8827722,8827723,8827724,8827725
8827726,8827741,8827742,8827743,8827744,8827745,8827746,8827747,8827748,8827749,8827750,8827751,8827752,8827753,8827754,8827755
8867810,8867811,8867812,8867813,8867814,8867815,8867816,8867817,8867818,8867819,8867820,8867821,8867822,8867823,8867824,8867825
8867826,8867827,8867828,8867829,8867830,8867831,8867832,8867833,8867834,8867835,8867836,8867837,8867838,8867839,8867840,8867841
8867842,8867843,8867844,8867845,8867846,8867847,8867848,8867849,8867850,8867851,8867852,8867853,8867854,8867855,8867856,8867857
8867858,8867859,8867860,8867861,8867862,8867863,8867864,8867865,8867866,8867867,8867868,8867869,8867870,8867871,8867872,8867873
8867874,8867875,8867876,8867877,8867878,8867879,8867880,8867881,8867882,8867883,8867884,8867885,8867886,8867887,8867888,8867889
8867890,8867891,8867892,8867893,8867894,8867895,8867896,8867897,8867898,8867899,8867900,8867901,8867902,8867903,8867904,8867905
8867906,8867907,8867908,8867909,8867910,8867911,8867912,8867913,8867914,8867915,8867916,8867917,8867918,8867919,8867920,8867921
8867922,8867923,8867924,8867925,8867926,8867927,8867928,8867929,8867930,8867931,8867932,8867933,8867934,8867935,8867936,8867937
8867938,8867939,8867940,8867941,8867942,8867943,8867944,8867945,8867946,8867947,8867948,8867949,8867950,8867951,8867952,8867953
8867954,8867955,8867956,8867957,8867958,8867959,8867960,8867961,8867962,8867963,8867964,8867965,8867966,8867967,8867968,8867969
8867970,8867971,8867972,8867973,8867974,8867975,8867976,8867977,8867978,8867979,8867980,8867981,8867982,8867983,8867984,8867985
8867986,8867987,8867988,8867989,8867990,8867991,8867992,8867993,8867994,8867995,8867996,8867997,8867998,8867999,8868000,8868001
8868002,8868003,8868004,8868005,8868006,8868007,8868008,8868009,8868010,8868011,8868012,8868013,8868014,8868015,8868016,8868017
** ... 19 like lines cut
*Elset, elset=Set-448, generate
8827763, 8827816,       1
*Elset, elset=Set-449, generate
8827817, 8827845,       1
*Elset, elset=Set-450, generate
8827846, 8827903,       1
*Elset, elset=Set-451, generate
8827904, 8828135,       1
*Elset, elset=Set-455, generate
8828136, 8828154,       1
*Elset, elset=Set-456, generate
8828155, 8828183,       1
*Elset, elset=Set-457, generate
8828184, 8828241,       1
*Elset, elset=Set-458, generate
8825965, 8826312,       1
*Elset, elset=dz-elem
8820638,8820639,8820640,8820641,8820642,8820643,8820644,8820645,8820646,8820647,8820648,8820649,8820650,8820651,8820652,8820653
8820654,8820655,8820656,8820657,8820658,8820659,8820660,8820661,8820662,8820663,8820664,8820665,8820666,8820667,8820668,8820669
8820670,8820671,8820672,8820673,8820674,8820675,8820676,8820677,8820678,8820679,8820680,8820681,8820682,8820683,8820684,8820685
8820686,8820687,8820688,8820689,8820690,8820691,8820692,8820693,8820694,8820695,8820696,8820697,8820698,8820699,8820700,8820701
8820702,8820703,8820704,8820705,8820706,8820707,8820708,8820709,8820710,8820711,8820712,8820713,8820714,8820715,8820716,8820717
8820718,8820719,8820720,8820721,8820722,8820723,8820724,8820725,8820726,8820727,8820728,8820729,8820730,8820731,8820732,8820733
8820734,8820735,8820736,8820737,8820738,8820739,8820740,8820741,8820742,8820743,8820744,8820745,8820746,8820747,8820748,8820749
8820750,8820751,8820752,8820753,8820754,8820755,8820756,8820757,8820758,8820759,8820760,8820761,8820762,8820763,8820764,8820765
8820766,8820767,8820768,8820769,8820770,8820771,8820772,8820773,8820774,8820775,8820776,8820777,8820778,8820779,8820780,8820781
8820782,8820783,8820784,8820785,8820786,8820787,8820788,8820789,8820790,8820791,8820792,8820793,8820794,8820795,8820796,8820797
8820798,8820799,8820800,8820801,8820802,8820803,8820804,8820805,8820806,8820807,8820808,8820809,8820810,8820811,8820812,8820813
8820814,8820815,8820816,8820817,8820818,8820819,8820820,8820821,8820822,8820823,8820824,8820825,8820826,8820827,8820828,8820829
8820830,8820831,8820832,8820833,8820834,8820835,8820836,8820837,8820838,8820839,8820840,8820841,8820842,8820843,8820844,8820845
8820846,8820847,8820848,8820849,8820850,8820851,8820852,8820853,8820854,8820855,8820856,8820857,8820858,8820859,8820860,8820861
8820862,8820863,8820864,8820865,8820866,8820867,8820868,8820869,8820870,8820871,8820872,8820873,8820874,8820875,8820876,8820877
8820878,8820879,8820880,8820881,8820882,8820883,8820884,8820885,8820886,8820887,8820888,8820889,8820890,8820891,8820892,8820893
8820894,8820895,8820896,8820897,8820898,8820899,8820900,8820901,8820902,8820903,8820904,8820905,8820906,8820907,8820908,8820909
8820910,8820911,8820912,8820913,8820914,8820915,8820916,8820917,8820918,8820919,8820920,8820921,8820922,8820923,8820924,8820925
8820926,8820927,8820928,8820929,8820930,8820931,8820932,8820933,8820934,8820935,8820936,8820937,8820938,8820939,8820940,8820941
8820942,8820943,8820944,8820945,8820946,8820947,8820948,8820949,8820950,8820951,8820952,8820953,8820954,8820955,8820956,8820957
** ... 2911 like lines cut
*Nset, nset=dz-node
    1,    2,    3,    4,    5,    6,    7,   12,   13,   14,   15,   16,   17,   24,   27,   28
   29,   30,   35,   36,   43,  505, 1177, 1178, 1179, 1180, 1181, 1182, 1183, 1184, 1185, 1186
 1187, 1188, 1189, 1190, 1191, 1192, 1193, 1194, 1195, 1196, 1197, 1198, 1199, 1200, 1201, 1202
 1203, 1204, 1205, 1206, 1207, 1208, 1209, 1210, 1211, 1212, 1213, 1214, 1215, 1216, 1217, 1218
 1219, 1220, 1221, 1222, 1223, 1224, 1225, 1226, 1227, 1228, 1229, 1230, 1231, 1232, 1233, 1234
 1235, 1236, 1237, 1238, 1239, 1240, 1241, 1242, 1243, 1244, 1245, 1246, 1247, 1248, 1249, 1250
 1251, 1252, 1253, 1254, 1255, 1256, 1257, 1258, 1259, 1260, 1261, 1262, 1263, 1264, 1265, 1266
 1267, 1268, 1269, 1270, 1271, 1272, 1273, 1274, 1275, 1276, 1277, 1278, 1279, 1280, 1281, 1282
 1283, 1284, 1285, 1286, 1287, 1288, 1289, 1290, 1291, 1292, 1293, 1294, 1295, 1296, 1406, 1407
 1408, 1409, 1410, 1411, 1412, 1413, 1414, 1415, 1416, 1417, 1418, 1419, 1420, 1421, 1422, 1423
 1424, 1425, 1426, 1427, 1428, 1429, 1430, 1431, 1432, 1433, 1434, 1435, 1436, 1437, 1438, 1439
 1440, 1441, 1442, 1443, 1444, 1445, 1449, 1450, 1451, 1452, 1455, 1501, 1502, 1503, 1504, 1505
 1506, 1507, 1508, 1509, 1510, 1511, 1512, 1513, 1514, 1515, 1516, 1517, 1518, 1519, 1520, 1521
 1522, 1523, 1524, 1525, 1526, 1527, 1528, 1529, 1530, 1531, 1532, 1533, 1534, 1535, 1536, 1537
 1538, 1539, 1540, 1541, 1542, 1543, 1544, 1545, 1546, 1547, 1548, 1549, 1550, 1551, 1552, 1553
 1554, 1555, 3760, 3761, 3762, 3763, 3764, 3765, 3766, 3767, 3768, 3769, 3770, 3771, 3772, 3773
 3774, 3775, 3776, 3777, 3778, 3779, 3780, 3781, 3782, 3783, 3784, 3785, 3786, 3787, 3788, 3789
 3790, 3791, 3792, 3793, 3794, 3795, 3796, 3797, 3798, 3799, 3800, 3801, 3802, 3803, 3804, 3805
 3806, 3807, 3808, 3809, 3810, 3811, 3812, 3813, 3814, 3815, 3816, 3817, 3818, 3819, 3820, 3821
 3822, 3823, 3824, 3825, 3826, 3827, 3828, 3829, 3830, 3831, 3832, 3833, 3834, 3835, 3836, 3837
** ... 22 like lines cut
*Nset, nset=_PickedSet866
  1258,  1265,  1274,  1281,  6300,  6307,  6316,  6323, 10272, 10296, 10318, 10350, 10397, 10426, 10454, 10482
*Elset, elset=Set-866
8868890,8868891,8868892,8868893,8868894,8868895,8868896,8868897,8868898,8868899,8868900,8868901,8868902,8868903,8868904,8868905
8868906,8868907,8868908,8868909,8868910,8868911,8868912,8868913,8868914,8868915,8868916,8868917,8868918,8868919,8868920,8868921
8868922,8868923,8868924,8868925,8868926,8868927,8868928,8868929,8868930,8868931,8868932,8868933,8868934,8868935,8868936,8868937
8868938,8868939,8868940,8868941,8868942,8868943,8868944,8868945,8868946,8868947,8868948,8868949,8868950,8868951,8868952,8868953
8868954,8868955,8868956,8868957,8868958,8868959,8868960,8868961,8868962,8868963,8868964,8868965,8868966,8868967,8869436,8869437
8869438,8869439,8869440,8869441,8869442,8869443,8869444,8869445,8869446,8869447,8869448,8869449,8869450,8869451,8869452,8869453
8869454,8869455,8869456,8869457,8869458,8869459,8869460,8869461,8869462,8869463,8869464,8869465,8869466,8869467,8869468,8869469
8869470,8869471,8869472,8869473,8869474,8869475,8869476,8869477,8869478,8869479,8869480,8869481,8869482,8869483,8869484,8869485
8869486,8869487,8869488,8869489,8869490,8869491,8869492,8869493,8869494,8869495,8869496,8869497,8869498,8869499,8869500,8869501
8869502,8869503,8869504,8869505,8869506,8869507,8869508,8869509,8869510,8869511,8869512,8869513,8869982,8869983,8869984,8869985
8869986,8869987,8869988,8869989,8869990,8869991,8869992,8869993,8869994,8869995,8869996,8869997,8869998,8869999,8870000,8870001
8870002,8870003,8870004,8870005,8870006,8870007,8870008,8870009,8870010,8870011,8870012,8870013,8870014,8870015,8870016,8870017
8870018,8870019,8870020,8870021,8870022,8870023,8870024,8870025,8870026,8870027,8870028,8870029,8870030,8870031,8870032,8870033
8870034,8870035,8870036,8870037,8870038,8870039,8870040,8870041,8870042,8870043,8870044,8870045,8870046,8870047,8870048,8870049
8870050,8870051,8870052,8870053,8870054,8870055,8870056,8870057,8870058,8870059,8870528,8870529,8870530,8870531,8870532,8870533
8870534,8870535,8870536,8870537,8870538,8870539,8870540,8870541,8870542,8870543,8870544,8870545,8870546,8870547,8870548,8870549
8870550,8870551,8870552,8870553,8870554,8870555,8870556,8870557,8870558,8870559,8870560,8870561,8870562,8870563,8870564,8870565
8870566,8870567,8870568,8870569,8870570,8870571,8870572,8870573,8870574,8870575,8870576,8870577,8870578,8870579,8870580,8870581
8870582,8870583,8870584,8870585,8870586,8870587,8870588,8870589,8870590,8870591,8870592,8870593,8870594,8870595,8870596,8870597
8870598,8870599,8870600,8870601,8870602,8870603,8870604,8870605,8871074,8871075,8871076,8871077,8871078,8871079,8871080,8871081
** ... 19 like lines cut
*Elset, elset=Set-867
8868750,8868751,8868752,8868753,8868754,8868755,8868756,8868757,8868758,8868759,8868760,8868761,8868762,8868763,8868764,8868765
8868766,8868767,8868768,8868769,8868770,8868771,8868772,8868773,8868774,8868775,8868776,8868777,8868778,8868779,8868780,8868781
8868782,8868783,8868856,8868857,8868858,8868859,8868860,8868861,8868862,8868863,8868864,8868865,8868866,8868867,8868868,8868869
8868870,8868871,8868872,8868873,8868874,8868875,8868876,8868877,8868878,8868879,8868880,8868881,8868882,8868883,8868884,8868885
8868886,8868887,8868888,8868889,8869294,8869295,8869296,8869297,8869298,8869299,8869300,8869301,8869302,8869303,8869304,8869305
8869306,8869307,8869308,8869309,8869310,8869311,8869312,8869313,8869314,8869315,8869316,8869317,8869318,8869319,8869320,8869321
8869322,8869323,8869324,8869327,8869328,8869329,8869400,8869401,8869402,8869403,8869404,8869405,8869406,8869407,8869408,8869409
8869410,8869411,8869412,8869413,8869414,8869415,8869416,8869417,8869418,8869419,8869420,8869421,8869422,8869423,8869424,8869425
8869426,8869427,8869428,8869429,8869430,8869433,8869434,8869435,8869840,8869841,8869842,8869843,8869844,8869845,8869846,8869847
8869848,8869849,8869850,8869851,8869852,8869853,8869854,8869855,8869856,8869857,8869858,8869859,8869860,8869861,8869862,8869863
8869864,8869865,8869866,8869867,8869868,8869869,8869870,8869873,8869874,8869875,8869946,8869947,8869948,8869949,8869950,8869951
8869952,8869953,8869954,8869955,8869956,8869957,8869958,8869959,8869960,8869961,8869962,8869963,8869964,8869965,8869966,8869967
8869968,8869969,8869970,8869971,8869972,8869973,8869974,8869975,8869976,8869979,8869980,8869981,8870386,8870387,8870388,8870389
8870390,8870391,8870392,8870393,8870394,8870395,8870396,8870397,8870398,8870399,8870400,8870401,8870402,8870403,8870404,8870405
8870406,8870407,8870408,8870409,8870410,8870411,8870412,8870413,8870414,8870415,8870416,8870419,8870420,8870421,8870492,8870493
8870494,8870495,8870496,8870497,8870498,8870499,8870500,8870501,8870502,8870503,8870504,8870505,8870506,8870507,8870508,8870509
8870510,8870511,8870512,8870513,8870514,8870515,8870516,8870517,8870518,8870519,8870520,8870521,8870522,8870525,8870526,8870527
8870932,8870933,8870934,8870935,8870936,8870937,8870938,8870939,8870940,8870941,8870942,8870943,8870944,8870945,8870946,8870947
8870948,8870949,8870950,8870951,8870952,8870953,8870954,8870955,8870956,8870957,8870958,8870959,8870960,8870961,8870962,8870965
8870966,8870967,8871038,8871039,8871040,8871041,8871042,8871043,8871044,8871045,8871046,8871047,8871048,8871049,8871050,8871051
** ... 14 like lines cut
*Elset, elset=Set-868
8868318,8868327,8868328,8868329,8868336,8868337,8868338,8868339,8868340,8868345,8868346,8868347,8868348,8868349,8868350,8868351
8868352,8868353,8868354,8868355,8868356,8868357,8868358,8868359,8868360,8868361,8868362,8868363,8868364,8868365,8868366,8868367
8868368,8868369,8868370,8868371,8868372,8868373,8868374,8868375,8868376,8868377,8868378,8868379,8868380,8868381,8868382,8868383
8868384,8868385,8868386,8868387,8868388,8868389,8868390,8868391,8868392,8868393,8868394,8868395,8868396,8868397,8868398,8868399
8868400,8868401,8868402,8868403,8868404,8868405,8868406,8868407,8868408,8868409,8868410,8868411,8868412,8868413,8868414,8868415
8868416,8868417,8868418,8868419,8868420,8868421,8868422,8868423,8868424,8868425,8868426,8868427,8868428,8868429,8868430,8868431
8868432,8868433,8868434,8868435,8868436,8868437,8868438,8868439,8868440,8868441,8868442,8868443,8868444,8868445,8868446,8868447
8868448,8868449,8868450,8868451,8868452,8868453,8868454,8868455,8868456,8868457,8868458,8868459,8868460,8868461,8868462,8868463
8868464,8868465,8868466,8868467,8868468,8868469,8868470,8868475,8868476,8868477,8868478,8868479,8868486,8868487,8868488,8868497
8868498,8868499,8868500,8868501,8868502,8868503,8868504,8868505,8868506,8868507,8868508,8868509,8868510,8868511,8868512,8868513
8868514,8868515,8868516,8868517,8868518,8868519,8868520,8868521,8868522,8868523,8868524,8868525,8868526,8868527,8868528,8868529
8868530,8868531,8868532,8868533,8868534,8868535,8868536,8868537,8868538,8868539,8868540,8868545,8868546,8868547,8868548,8868549
8868556,8868557,8868558,8868567,8868568,8868577,8868578,8868587,8868588,8868597,8868598,8868607,8868608,8868617,8868618,8868619
8868626,8868627,8868628,8868629,8868630,8868635,8868636,8868637,8868638,8868639,8868640,8868641,8868642,8868643,8868644,8868645
8868646,8868647,8868648,8868649,8868650,8868651,8868652,8868653,8868654,8868655,8868656,8868657,8868658,8868659,8868660,8868661
8868662,8868663,8868664,8868665,8868666,8868667,8868668,8868669,8868670,8868671,8868672,8868673,8868674,8868675,8868676,8868677
8868678,8868679,8868680,8868681,8868682,8868683,8868684,8868685,8868686,8868687,8868688,8868689,8868690,8868691,8868692,8868693
8868694,8868695,8868696,8868697,8868698,8868699,8868700,8868701,8868702,8868703,8868704,8868705,8868706,8868707,8868708,8868709
8868710,8868711,8868712,8868713,8868714,8868715,8868716,8868717,8868718,8868719,8868720,8868721,8868722,8868723,8868724,8868725
8868726,8868727,8868728,8868729,8868730,8868731,8868732,8868733,8868734,8868735,8868736,8868737,8868738,8868739,8868740,8868741
** ... 180 like lines cut
*Elset, elset=Set-870, generate
8872790, 8872805,       1
*Elset, elset=__PickedSet867_E3
8828257,8828273,8828289,8828305,8828321,8828337,8828353,8828369,8828385,8828401,8828417,8828433,8828449,8828465,8828481,8828497
8828513,8828529,8828689,8828705,8828721,8828737,8828753,8828769,8828785,8828801,8828817,8858729,8858745,8858761,8858777,8858793
8858809,8858825,8858841,8858857
*Surface, type=ELEMENT, name=_PickedSet867
__PickedSet867_E3, E3
** Section: ch5_hopperweb_p16
*Shell Section, elset=Set-442, material=Material-13
16, 3
** Section: ch5_btm_p19
*Shell Section, elset=Set-405, material=Material-13
19, 3
** Section: ch5_btm_p195
*Shell Section, elset=Set-406, material=Material-13
19.5, 3
** Section: ch5_btm_p20
*Shell Section, elset=Set-407, material=Material-13
20, 3
** Section: ch5_btm_p22
*Shell Section, elset=Set-408, material=Material-13
22, 3
** Section: ch5_btm_p23
*Shell Section, elset=Set-409, material=Material-13
23, 3
** Section: ch5_btmgrd_p1637
*Shell Section, elset=Set-413, material=Material-13
16.37, 3
** Section: ch5_btmgrd_p1682
*Shell Section, elset=Set-414, material=Material-13
16.82, 3
** Section: ch5_btmgrd_p1985
*Shell Section, elset=Set-415, material=Material-13
19.85, 3
** Section: ch5_floor_p1632
*Shell Section, elset=Set-423, material=Material-13
16.32, 3
** Section: ch5_floor_p1832
*Shell Section, elset=Set-424, material=Material-13
18.32, 3
** Section: ch5_floor_p2132
*Shell Section, elset=Set-425, material=Material-13
21.32, 3
** Section: ch5_hopper_p195
*Shell Section, elset=Set-435, material=Material-13
19.5, 3
** Section: ch5_hopper_p20
*Shell Section, elset=Set-436, material=Material-13
20, 3
** Section: ch5_hopper_p205
*Shell Section, elset=Set-437, material=Material-13
20.5, 3
** Section: ch5_hopper_p235
*Shell Section, elset=Set-438, material=Material-13
23.5, 3
** Section: ch5_hopper_p245
*Shell Section, elset=Set-439, material=Material-13
24.5, 3
** Section: ch5_inbtm_26
*Shell Section, elset=Set-444, material=Material-13
26, 3
** Section: ch5_side_p18
*Shell Section, elset=Set-458, material=Material-13
18, 3
** Section: 5_outshell_S4T300x10x100x  Profile: 5_outshell_S4T300x10x100x
*Beam Section, elset=Set-19, material=Material-13, temperature=GRADIENTS, section=I
274, 300, 0., 100, 0., 52, 40
BeamOrient-19
5, 5
0,273.413,0
** Section: 5_outshell_S4T300x11x115x  Profile: 5_outshell_S4T300x11x115x
*Beam Section, elset=Set-20, material=Material-13, temperature=GRADIENTS, section=I
268, 300, 0., 115, 0., 64, 44
BeamOrient-20
5, 5
0,267.782,0
** Section: Section-250-T-110X300  Profile: Section-250-T-110X300
*Beam Section, elset=Set-45, material=Material-13, temperature=GRADIENTS, section=I
268, 300, 0., 110, 0., 64, 44
BeamOrient-45
5, 5
0,-189.211,-189.211
** Section: Section-257-T-100X300  Profile: Section-257-T-100X300
*Beam Section, elset=Set-52, material=Material-13, temperature=GRADIENTS, section=I
279, 300, 0., 100, 0., 42, 33
BeamOrient-52
5, 5
0,-197.028,-197.028
** Section: ch54_innerbtm_S2HP240x11  Profile: ch54_innerbtm_S2HP240x11
*Beam Section, elset=Set-404, material=Material-13, temperature=GRADIENTS, section=L
44.821, 240, 48.174, 22
0,-1,0
5, 5
0,0,-137
** Section: ch5_btmgrd_S2F300x24  Profile: ch5_btmgrd_S2F300x24
*Beam Section, elset=Set-410, material=Material-13, temperature=GRADIENTS, section=RECT
24, 300
BeamOrient-410
5, 5
0,150,0
** Section: ch5_btmgrd_S2F500x24  Profile: ch5_btmgrd_S2F500x24
*Beam Section, elset=Set-411, material=Material-13, temperature=GRADIENTS, section=RECT
24, 500
BeamOrient-411
5, 5
0,250,0
** Section: ch5_btmgrd_S2F500x24.644  Profile: ch5_btmgrd_S2F500x24.644
*Beam Section, elset=Set-412, material=Material-13, temperature=GRADIENTS, section=RECT
24, 500
BeamOrient-412
5, 5
0,-250,0
** Section: ch5_hopper_S3T300x11x100x  Profile: ch5_hopper_S3T300x11x100x
*Beam Section, elset=Set-433, material=Material-13, temperature=GRADIENTS, section=I
279, 300, 0., 100, 0., 42, 33
BeamOrient-433
5, 5
0,197.028,-197.028
** Section: ch5_hopper_S4T300x11x110x  Profile: ch5_hopper_S4T300x11x110x
*Beam Section, elset=Set-434, material=Material-13, temperature=GRADIENTS, section=I
268, 300, 0., 110, 0., 64, 44
BeamOrient-434
5, 5
0,189.211,-189.211
** Section: ch5_hopperweb_SF400x20  Profile: ch5_hopperweb_SF400x20
*Beam Section, elset=Set-440, material=Material-13, temperature=GRADIENTS, section=RECT
20, 400
BeamOrient-440
5, 5
0,0,0
** Section: ch5_hopperweb_ST500x20x20  Profile: ch5_hopperweb_ST500x20x20
*Beam Section, elset=Set-441, material=Material-13, temperature=GRADIENTS, section=I
485, 500, 0., 200, 0., 30, 20
BeamOrient-441
5, 5
484.597,0,0
** Section: ch5_innerbtm_S2F500x12  Profile: ch5_innerbtm_S2F500x12
*Beam Section, elset=Set-445, material=Material-13, temperature=GRADIENTS, section=RECT
24, 500
1,0,0
5, 5
0,0,-250
** Section: ch5_innerbtm_S2T350x12x12  Profile: ch5_innerbtm_S2T350x12x12
*Beam Section, elset=Set-446, material=Material-13, temperature=GRADIENTS, section=I
328, 350, 0., 120, 0., 44, 24
BeamOrient-446
5, 5
0,0,-327.806
** Section: ch5_innerbtm_S3T350x12x12  Profile: ch5_innerbtm_S3T350x12x12
*Beam Section, elset=Set-447, material=Material-13, temperature=GRADIENTS, section=I
317, 350, 0., 120, 0., 66, 33
BeamOrient-447
5, 5
0,0,-316.847
** Section: ch5_outshell_S2F500x12  Profile: ch5_outshell_S2F500x12
*Beam Section, elset=Set-448, material=Material-13, temperature=GRADIENTS, section=RECT
24, 500
BeamOrient-448
5, 5
0,0,250
** Section: ch5_outshell_S2HP200x10  Profile: ch5_outshell_S2HP200x10
*Beam Section, elset=Set-449, material=Material-13, temperature=GRADIENTS, section=L
37.851, 200, 39.478, 20
0,-1,0
5, 5
0,0,120
** Section: ch5_outshell_S2T320x11x12  Profile: ch5_outshell_S2T320x11x12
*Beam Section, elset=Set-450, material=Material-13, temperature=GRADIENTS, section=I
302, 320, 0., 125, 0., 36, 22
BeamOrient-450
5, 5
0,0,302.011
** Section: ch5_outshell_S3T320x11x12  Profile: ch5_outshell_S3T320x11x12
*Beam Section, elset=Set-451, material=Material-13, temperature=GRADIENTS, section=I
293, 320, 0., 125, 0., 54, 33
BeamOrient-451
5, 5
0,0,292.448
** Section: ch5_outshell_S4T300x10x10  Profile: ch5_outshell_S4T300x10x10
*Beam Section, elset=Set-455, material=Material-13, temperature=GRADIENTS, section=I
274, 300, 0., 100, 0., 52, 40
BeamOrient-455
5, 5
0,-273.413,0
** Section: ch5_outshell_S4T300x11x11  Profile: ch5_outshell_S4T300x11x11
*Beam Section, elset=Set-456, material=Material-13, temperature=GRADIENTS, section=I
268, 300, 0., 115, 0., 64, 44
BeamOrient-456
5, 5
0,-267.782,0
** Section: ch5_outshell_S5T350x11x12  Profile: ch5_outshell_S5T350x11x12
*Beam Section, elset=Set-457, material=Material-13, temperature=GRADIENTS, section=I
300, 350, 0., 120, 0., 100, 55
BeamOrient-457
5, 5
0.0001423,1.3546e-07,299.447
** Section: T12
*Shell Section, elset=Set-868, material=Material-1
12, 5
** Section: T14
*Shell Section, elset=Set-867, material=Material-1
14, 5
** Section: T10
*Shell Section, elset=Set-866, material=Material-1
10, 5
** Section: truss
*Solid Section, elset=Set-870, material=Material-1
3000,
*Distribution, name=BeamOrient-19, location=ELEMENT, Table=BeamOrient-19_Table
, 0.,0.,-1.
8751142, 0.000644782,0,1
8751144, 0.000644603,0,1
8751137, -0.00557491,0,0.999985
8751138, 0.000428543,0,1
8751139, 0.000644782,0,1
8751140, 0.000641026,0,1
8751141, 0.000644603,0,1
8751166, -0.000966904,0,-1
8751143, 0.000641026,0,1
8751145, 0.000641026,0,1
8826484, 0.000644782,0,1
8826485, 0.000644782,0,1
8826486, 0.000644782,0,1
8826478, 0.000644603,0,1
8826479, 0.000644603,0,1
8826480, 0.000644603,0,1
8826492, -0.00557491,0,0.999985
8826493, -0.00557491,0,0.999985
8826490, 0.000641026,0,1
8826491, 0.000641026,0,1
** ... 9 like lines cut
*Distribution, name=BeamOrient-20, location=ELEMENT, Table=BeamOrient-20_Table
, 0.,0.,-1.
8751167, -0.00192857,0,-0.999998
8751130, 0.00128572,0,0.999999
8751131, 0.00128572,0,0.999999
8751132, 0.00128572,0,0.999999
8751129, 0.000857085,3.05533e-12,1
8751133, 0.00128938,0,0.999999
8751134, 0.00128572,0,0.999999
8751135, 0.00128572,0,0.999999
8751136, 0.00129672,0,0.999999
8751128, -0.0111568,-2.27374e-12,0.999938
8826497, -0.00192857,0,-0.999998
8826498, -0.00192857,0,-0.999998
8826499, 0.00128572,0,0.999999
8826500, 0.00128572,0,0.999999
8826501, 0.00128572,0,0.999999
8826502, 0.00128572,0,0.999999
8826503, 0.00128572,0,0.999999
8826504, 0.00128572,0,0.999999
8826505, 0.00128572,0,0.999999
8826506, 0.00128572,0,0.999999
** ... 19 like lines cut
*Distribution, name=BeamOrient-45, location=ELEMENT, Table=BeamOrient-45_Table
, 0.,0.,-1.
8750730, 0,0.707107,-0.707107
8750731, 0,-0.707107,0.707107
8750732, 0,-0.707107,0.707107
8750733, 0,-0.707107,0.707107
8750734, 0,-0.707107,0.707107
8750735, 0,-0.707107,0.707107
8750736, 0,-0.707107,0.707107
8750737, 0,-0.707107,0.707107
8750738, 0,-0.707107,0.707107
8750742, 0,-0.707107,0.707107
8826549, 0,0.707107,-0.707107
8826550, 0,0.707107,-0.707107
8826551, 0,0.707107,-0.707107
8826541, 0,-0.707107,0.707107
8826542, 0,-0.707107,0.707107
8826543, 0,-0.707107,0.707107
8826538, 0,-0.707107,0.707107
8826539, 0,-0.707107,0.707107
8826540, 0,-0.707107,0.707107
8826535, 0,-0.707107,0.707107
** ... 19 like lines cut
*Distribution, name=BeamOrient-52, location=ELEMENT, Table=BeamOrient-52_Table
, 0.,0.,-1.
8750726, 0,-0.707107,0.707107
8750727, 0,-0.707107,0.707107
8750725, 0,-0.707107,0.707107
8750728, 0,-0.707107,0.707107
8750714, 0,-0.707107,0.707107
8750715, 0,-0.707107,0.707107
8750716, 0,-0.707107,0.707107
8750729, 0,0.707107,-0.707107
8750717, 0,-0.707107,0.707107
8750718, 0,-0.707107,0.707107
8750719, 0,-0.707107,0.707107
8750739, 0,-0.707107,0.707107
8750740, 0,-0.707107,0.707107
8750741, 0,-0.707107,0.707107
8750723, 0,-0.707107,0.707107
8750724, 0,-0.707107,0.707107
8750720, 0,-0.707107,0.707107
8750721, 0,-0.707107,0.707107
8750722, 0,-0.707107,0.707107
8750713, 0,-0.707107,0.707107
** ... 58 like lines cut
*Distribution, name=BeamOrient-410, location=ELEMENT, Table=BeamOrient-410_Table
, 0.,0.,-1.
8747808, -1,0,0
8747807, -1,0,0
8747806, -1,0,0
8747805, -1,0,0
8747804, -1,0,0
8747803, -1,0,0
8747802, -1,0,0
8747801, -1,0,0
8747800, 1,0,0
8747799, -1,0,0
8826639, -1,0,0
8826640, -1,0,0
8826641, -1,0,0
8826642, -1,0,0
8826643, -1,0,0
8826644, -1,0,0
8826645, -1,0,0
8826646, -1,0,0
8826647, -1,0,0
8826648, -1,0,0
** ... 17 like lines cut
*Distribution, name=BeamOrient-411, location=ELEMENT, Table=BeamOrient-411_Table
, 0.,0.,-1.
8747962, -1,0,0
8747961, -1,0,0
8747960, -1,0,0
8747959, -1,0,0
8747958, -1,0,0
8747957, -1,0,0
8747956, -1,0,0
8747955, -1,0,0
8747954, 1,0,0
8747953, -1,0,0
8826666, -1,0,0
8826667, -1,0,0
8826668, -1,0,0
8826669, -1,0,0
8826670, -1,0,0
8826671, -1,0,0
8826672, -1,0,0
8826673, -1,0,0
8826674, -1,0,0
8826675, -1,0,0
** ... 17 like lines cut
*Distribution, name=BeamOrient-412, location=ELEMENT, Table=BeamOrient-412_Table
, 0.,0.,-1.
8761397, -1,0,0
8761395, -1,0,0
8761394, -1,0,0
8761393, -1,0,0
8761392, -1,0,0
8761391, -1,0,0
8761390, -1,0,0
8761389, 1,0,0
8761388, -1,0,0
8761396, -1,0,0
8826693, -1,0,0
8826694, -1,0,0
8826695, -1,0,0
8826696, -1,0,0
8826697, -1,0,0
8826698, -1,0,0
8826699, -1,0,0
8826700, -1,0,0
8826701, -1,0,0
8826702, -1,0,0
** ... 17 like lines cut
*Distribution, name=BeamOrient-433, location=ELEMENT, Table=BeamOrient-433_Table
, 0.,0.,-1.
2185796, 0,0.707107,0.707107
2185797, 0,0.707107,0.707107
2185798, 0,0.707107,0.707107
2185799, 0,0.707107,0.707107
2185823, 0,0.707107,0.707107
2185800, 0,0.707107,0.707107
2185801, 0,0.707107,0.707107
2185802, 0,0.707107,0.707107
2185803, 0,0.707107,0.707107
2185804, 0,0.707107,0.707107
2185805, 0,0.707107,0.707107
2185822, 0,0.707107,0.707107
2185821, 0,0.707107,0.707107
2185806, 0,0.707107,0.707107
2185807, 0,0.707107,0.707107
2185808, 0,0.707107,0.707107
2185795, 0,0.707107,0.707107
2185809, 0,0.707107,0.707107
2185810, 0,0.707107,0.707107
2185811, 0,-0.707107,-0.707107
** ... 58 like lines cut
*Distribution, name=BeamOrient-434, location=ELEMENT, Table=BeamOrient-434_Table
, 0.,0.,-1.
2185813, 0,0.707107,0.707107
2185812, 0,-0.707107,-0.707107
2185814, 0,0.707107,0.707107
2185815, 0,0.707107,0.707107
2185816, 0,0.707107,0.707107
2185817, 0,0.707107,0.707107
2185818, 0,0.707107,0.707107
2185819, 0,0.707107,0.707107
2185820, 0,0.707107,0.707107
2185824, 0,0.707107,0.707107
8826796, 0,0.707107,0.707107
8826797, 0,0.707107,0.707107
8826798, 0,0.707107,0.707107
8826804, 0,-0.707107,-0.707107
8826805, 0,-0.707107,-0.707107
8826806, 0,-0.707107,-0.707107
8826793, 0,0.707107,0.707107
8826794, 0,0.707107,0.707107
8826795, 0,0.707107,0.707107
8826790, 0,0.707107,0.707107
** ... 19 like lines cut
*Distribution, name=BeamOrient-440, location=ELEMENT, Table=BeamOrient-440_Table
, 0.,0.,-1.
5797992, 0,-0.499016,-0.866593
5797991, 0,-0.989157,-0.146864
5797993, 0,0.355113,-0.934823
5797994, 0,0.711452,-0.702734
5797995, 0,0.784383,-0.620276
5797996, 0,-0.967783,-0.251787
5797999, 0,-0.248428,0.96865
5797990, 0,-0.985285,0.170922
5797989, 0,-0.985267,0.171025
5797988, 0,0.216075,0.976377
5798091, 0,-0.248428,0.96865
5798092, 0,-0.248458,0.968643
5798103, 0,0.216075,0.976377
5798000, 0,-0.248458,0.968643
5798088, 0,-0.967783,-0.251787
5798087, 0,0.784383,-0.620276
5798086, 0,0.711452,-0.702734
5798085, 0,0.355113,-0.934823
5798104, 0,-0.985267,0.171025
5798105, 0,-0.985285,0.170922
** ... 412 like lines cut
*Distribution, name=BeamOrient-441, location=ELEMENT, Table=BeamOrient-441_Table
, 0.,0.,-1.
5798210, 0,-0.927244,-0.374458
5798209, 0,-0.999269,0.0382302
5798208, 0,-0.927244,-0.374458
5798207, 0,-0.99918,0.0404852
5798206, 0,-0.927244,-0.374458
5798205, 0,-0.999083,0.0428276
5798204, 0,-0.927244,-0.374458
8746343, 0,0.764437,0.644698
8746344, 0,0.999344,-0.0362183
8746345, 0,-0.998327,0.0578263
8746346, 0,0.739259,-0.673421
8746347, 0,-0.467725,-0.883874
8746348, 0,0.77444,0.632648
8746349, 0,0.540883,-0.841098
8746350, 0,-0.998327,0.0578263
8746351, 0,0.738996,-0.67371
8746352, 0,-0.998327,0.0578263
8746353, 0,0.738599,-0.674145
8746354, 0,-0.998327,0.0578263
8746355, 0,0.738201,-0.674581
** ... 602 like lines cut
*Distribution, name=BeamOrient-446, location=ELEMENT, Table=BeamOrient-446_Table
, 0.,0.,-1.
2186133, 0,1,0
2186134, 0,1,0
2186135, 0,1,0
2186136, 0,1,0
8750833, 0,-1,0
8750834, 0,-1,0
8750835, 0,-1,0
8750836, 0,-1,0
8750837, 0,-1,0
8750838, 0,-1,0
8750839, 0,-1,0
8750840, 0,-1,0
8750841, 0,1,0
8750875, 0,1,0
2186137, 0,1,0
2186138, 0,1,0
2186139, 0,1,0
2186140, 0,-1,0
2186156, 0,1,0
2186168, 0,-1,0
** ... 144 like lines cut
*Distribution, name=BeamOrient-447, location=ELEMENT, Table=BeamOrient-447_Table
, 0.,0.,-1.
2186157, 0,1,0
8750844, 0,-1,0
8750843, 0,-1,0
8750842, 0,-1,0
2186191, 0,-1,0
2186190, 0,-1,0
2186189, 0,-1,0
2186167, 0,1,0
2186166, 0,1,0
8750868, 0,-1,0
8750867, 0,-1,0
8750866, 0,-1,0
8750865, 0,-1,0
8750864, 0,-1,0
8750863, 0,-1,0
8750862, 0,-1,0
8750861, 0,-1,0
8750860, 0,-1,0
8750859, 0,-1,0
8750858, 0,-1,0
** ... 714 like lines cut
*Distribution, name=BeamOrient-448, location=ELEMENT, Table=BeamOrient-448_Table
, 0.,0.,-1.
8761497, 1,0,0
8747817, -1,0,0
8761252, -1,0,0
8761251, -1,0,0
8761250, -1,0,0
8761248, -1,0,0
8761247, 1,0,0
8761246, -1,0,0
8761245, -1,0,0
8761244, 1,0,0
8747809, 1,0,0
8747810, -1,0,0
8747811, -1,0,0
8747812, 1,0,0
8747813, -1,0,0
8748062, 1,0,0
8747814, -1,0,0
8747815, -1,0,0
8747816, -1,0,0
8761249, -1,0,0
** ... 54 like lines cut
*Distribution, name=BeamOrient-450, location=ELEMENT, Table=BeamOrient-450_Table
, 0.,0.,-1.
2186473, 0,-1,0
2186381, 0,-1,0
2186380, 0,-1,0
2186379, 0,-1,0
2186378, 0,-1,0
2186377, 0,-1,0
8751173, 0,1,0
2186376, 0,-1,0
2186375, 0,-1,0
8751082, 0,1,0
2186374, 0,-1,0
8751081, 0,1,0
8751080, 0,1,0
8751079, 0,1,0
8751078, 0,1,0
8751077, 0,1,0
8751076, 0,1,0
8751075, 0,1,0
8751074, 0,1,0
2186382, 0,-1,0
** ... 58 like lines cut
*Distribution, name=BeamOrient-451, location=ELEMENT, Table=BeamOrient-451_Table
, 0.,0.,-1.
8751103, 0,1,0
8751102, 0,1,0
8751101, 0,1,0
8751100, 0,1,0
8751099, 0,1,0
8751098, 0,1,0
8751097, 0,1,0
8751096, 0,1,0
8751105, 0,1,0
8751106, 0,1,0
8751107, 0,1,0
8751108, 0,1,0
8751109, 0,1,0
8751110, 0,-1,0
8751111, 0,-1,0
8751112, 0,-1,0
8751113, 0,-1,0
8751114, 0,-1,0
8751115, 0,-1,0
8751116, 0,-1,0
** ... 292 like lines cut
*Distribution, name=BeamOrient-455, location=ELEMENT, Table=BeamOrient-455_Table
, 0.,0.,-1.
2186441, 0.000644603,0,1
2186439, 0.000644782,0,1
2186438, 0.000428543,0,1
2186437, -0.00557491,0,0.999985
2186442, 0.000644782,0,1
2186466, -0.000966904,0,-1
2186445, 0.000641026,0,1
2186444, 0.000644603,0,1
2186443, 0.000641026,0,1
2186440, 0.000641026,0,1
8828140, 0.000644603,0,1
8828141, 0.000644603,0,1
8828142, 0.000644603,0,1
8828136, -0.00557491,0,0.999985
8828137, -0.00557491,0,0.999985
8828143, 0.000644782,0,1
8828144, 0.000644782,0,1
8828145, 0.000644782,0,1
8828152, 0.000641026,0,1
8828153, 0.000641026,0,1
** ... 9 like lines cut
*Distribution, name=BeamOrient-456, location=ELEMENT, Table=BeamOrient-456_Table
, 0.,0.,-1.
2186432, 0.00128572,0,0.999999
2186433, 0.00128938,0,0.999999
2186434, 0.00128572,0,0.999999
2186436, 0.00129672,0,0.999999
2186428, -0.0111568,2.27374e-12,0.999938
2186429, 0.000857085,-3.05533e-12,1
2186430, 0.00128572,0,0.999999
2186467, -0.00192857,0,-0.999998
2186435, 0.00128572,0,0.999999
2186431, 0.00128572,0,0.999999
8828166, 0.00128572,0,0.999999
8828167, 0.00128572,0,0.999999
8828168, 0.00128572,0,0.999999
8828169, 0.00128938,0,0.999999
8828170, 0.00128938,0,0.999999
8828171, 0.00128938,0,0.999999
8828172, 0.00128572,0,0.999999
8828173, 0.00128572,0,0.999999
8828174, 0.00128572,0,0.999999
8828178, 0.00129672,0,0.999999
** ... 19 like lines cut
*Distribution, name=BeamOrient-457, location=ELEMENT, Table=BeamOrient-457_Table
, 0.,0.,-1.
8751127, -0.000952238,1,-8.32667e-15
2186420, -0.000622424,-1,2.85161e-13
2186419, 0.00835093,-0.999965,-5.21041e-11
2186422, -0.000952238,-1,5.19584e-14
2186423, -0.000952238,-1,-4.65628e-13
2186424, -0.00098944,-1,2.66676e-13
2186425, -0.000952238,-1,3.45501e-13
2186426, -0.000988724,-1,3.28293e-13
2186427, -0.000952238,-1,-4.0834e-13
2186468, -0.00142836,-0.999999,-1.11466e-13
8751168, -0.00142836,0.999999,-1.15463e-14
8751119, 0.00835093,0.999965,-4.20997e-11
8751120, -0.000622424,1,-1.48215e-14
8751121, -0.00098944,1,1.82077e-14
8751122, -0.000952238,1,5.19584e-14
8751123, -0.000952238,1,3.4639e-14
8751124, -0.00098944,1,-3.34177e-14
8751125, -0.000952238,1,4.55191e-14
8751126, -0.000988724,1,2.83107e-14
2186421, -0.00098944,-1,-8.18234e-14
** ... 58 like lines cut
*End Part
**  
** 
** ASSEMBLY
** 
*Assembly, name=Assembly 
** 
*Instance, name=NAS-180k-dry-1, part=NAS-180k-dry
*End Instance
**
*Nset, nset=m_Set-1, instance=NAS-180k-dry-1
 57672
*Nset, nset=s_Set-1, instance=NAS-180k-dry-1, generate
 53328,  53331,      1
*Nset, nset=m_Set-3, instance=NAS-180k-dry-1
 57673
*Nset, nset=s_Set-3, instance=NAS-180k-dry-1, generate
 53454,  53457,      1
*Nset, nset=m_Set-5, instance=NAS-180k-dry-1
 57676
*Nset, nset=s_Set-5, instance=NAS-180k-dry-1, generate
 53937,  53940,      1
*Nset, nset=m_Set-7, instance=NAS-180k-dry-1
 57677
*Nset, nset=s_Set-7, instance=NAS-180k-dry-1, generate
 54031,  54034,      1
*Nset, nset=m_Set-9, instance=NAS-180k-dry-1
 57674
*Nset, nset=s_Set-9, instance=NAS-180k-dry-1, generate
 54494,  54497,      1
*Nset, nset=m_Set-11, instance=NAS-180k-dry-1
 57675
*Nset, nset=s_Set-11, instance=NAS-180k-dry-1, generate
 54588,  54591,      1
*Nset, nset=m_Set-13, instance=NAS-180k-dry-1
 57678
*Nset, nset=s_Set-13, instance=NAS-180k-dry-1, generate
 55049,  55052,      1
*Nset, nset=m_Set-15, instance=NAS-180k-dry-1
 57679
*Nset, nset=s_Set-15, instance=NAS-180k-dry-1, generate
 55143,  55146,      1
*Nset, nset=m_Set-17, instance=NAS-180k-dry-1
 57680
*Nset, nset=s_Set-17, instance=NAS-180k-dry-1
 57475, 57476, 57477, 57482
*Nset, nset=m_Set-19, instance=NAS-180k-dry-1
 57681
*Nset, nset=s_Set-19, instance=NAS-180k-dry-1
 57569, 57570, 57571, 57576
*Nset, nset=m_Set-21, instance=NAS-180k-dry-1
 57683
*Nset, nset=s_Set-21, instance=NAS-180k-dry-1
 56343, 56344, 56345, 56350
*Nset, nset=m_Set-23, instance=NAS-180k-dry-1
 57682
*Nset, nset=s_Set-23, instance=NAS-180k-dry-1
 56249, 56250, 56251, 56256
*Nset, nset=m_Set-25, instance=NAS-180k-dry-1
 57685
*Nset, nset=s_Set-25, instance=NAS-180k-dry-1
 56956, 56957, 56958, 56963
*Nset, nset=m_Set-27, instance=NAS-180k-dry-1
 57684
*Nset, nset=s_Set-27, instance=NAS-180k-dry-1
 56862, 56863, 56864, 56869
*Nset, nset=m_Set-29, instance=NAS-180k-dry-1
 57686
*Nset, nset=s_Set-29, instance=NAS-180k-dry-1
 55636, 55637, 55638, 55643
*Nset, nset=m_Set-31, instance=NAS-180k-dry-1
 57687
*Nset, nset=s_Set-31, instance=NAS-180k-dry-1
 55730, 55731, 55732, 55737
*Nset, nset=Set-33, instance=NAS-180k-dry-1
 57691, 57692, 57693, 57695
*Surface, type=NODE, name=s_Set-1_CNS_
s_Set-1, 1
*Surface, type=NODE, name=s_Set-19_CNS_
s_Set-19, 1
*Surface, type=NODE, name=s_Set-21_CNS_
s_Set-21, 1
*Surface, type=NODE, name=s_Set-23_CNS_
s_Set-23, 1
*Surface, type=NODE, name=s_Set-25_CNS_
s_Set-25, 1
*Surface, type=NODE, name=s_Set-27_CNS_
s_Set-27, 1
*Surface, type=NODE, name=s_Set-29_CNS_
s_Set-29, 1
*Surface, type=NODE, name=s_Set-31_CNS_
s_Set-31, 1
*Surface, type=NODE, name=s_Set-3_CNS_
s_Set-3, 1
*Surface, type=NODE, name=s_Set-5_CNS_
s_Set-5, 1
*Surface, type=NODE, name=s_Set-7_CNS_
s_Set-7, 1
*Surface, type=NODE, name=s_Set-9_CNS_
s_Set-9, 1
*Surface, type=NODE, name=s_Set-11_CNS_
s_Set-11, 1
*Surface, type=NODE, name=s_Set-13_CNS_
s_Set-13, 1
*Surface, type=NODE, name=s_Set-15_CNS_
s_Set-15, 1
*Surface, type=NODE, name=s_Set-17_CNS_
s_Set-17, 1
** Constraint: Constraint-1
*Coupling, constraint name=Constraint-1, ref node=m_Set-1, surface=s_Set-1_CNS_
*Kinematic
** Constraint: Constraint-10
*Coupling, constraint name=Constraint-10, ref node=m_Set-19, surface=s_Set-19_CNS_
*Kinematic
** Constraint: Constraint-11
*Coupling, constraint name=Constraint-11, ref node=m_Set-21, surface=s_Set-21_CNS_
*Kinematic
** Constraint: Constraint-12
*Coupling, constraint name=Constraint-12, ref node=m_Set-23, surface=s_Set-23_CNS_
*Kinematic
** Constraint: Constraint-13
*Coupling, constraint name=Constraint-13, ref node=m_Set-25, surface=s_Set-25_CNS_
*Kinematic
** Constraint: Constraint-14
*Coupling, constraint name=Constraint-14, ref node=m_Set-27, surface=s_Set-27_CNS_
*Kinematic
** Constraint: Constraint-15
*Coupling, constraint name=Constraint-15, ref node=m_Set-29, surface=s_Set-29_CNS_
*Kinematic
** Constraint: Constraint-16
*Coupling, constraint name=Constraint-16, ref node=m_Set-31, surface=s_Set-31_CNS_
*Kinematic
** Constraint: Constraint-2
*Coupling, constraint name=Constraint-2, ref node=m_Set-3, surface=s_Set-3_CNS_
*Kinematic
** Constraint: Constraint-3
*Coupling, constraint name=Constraint-3, ref node=m_Set-5, surface=s_Set-5_CNS_
*Kinematic
** Constraint: Constraint-4
*Coupling, constraint name=Constraint-4, ref node=m_Set-7, surface=s_Set-7_CNS_
*Kinematic
** Constraint: Constraint-5
*Coupling, constraint name=Constraint-5, ref node=m_Set-9, surface=s_Set-9_CNS_
*Kinematic
** Constraint: Constraint-6
*Coupling, constraint name=Constraint-6, ref node=m_Set-11, surface=s_Set-11_CNS_
*Kinematic
** Constraint: Constraint-7
*Coupling, constraint name=Constraint-7, ref node=m_Set-13, surface=s_Set-13_CNS_
*Kinematic
** Constraint: Constraint-8
*Coupling, constraint name=Constraint-8, ref node=m_Set-15, surface=s_Set-15_CNS_
*Kinematic
** Constraint: Constraint-9
*Coupling, constraint name=Constraint-9, ref node=m_Set-17, surface=s_Set-17_CNS_
*Kinematic
*End Assembly
** 
** MATERIALS
** 
*Material, name=Material-1
*Density
1.7724e-08,
*Elastic
206000, 0.3
*Material, name=Material-10
*Density
8.4078e-08,
*Elastic
206000, 0.3
*Material, name=Material-11
*Density
8.7377e-08,
*Elastic
206000, 0.3
*Material, name=Material-12
*Density
9.1153e-08,
*Elastic
206000, 0.3
*Material, name=Material-13
*Density
8.2374e-08,
*Elastic
206000, 0.3
*Material, name=Material-2
*Density
8.3713e-08,
*Elastic
206000, 0.3
*Material, name=Material-3
*Density
7.9589e-08,
*Elastic
206000, 0.3
*Material, name=Material-4
*Density
8.2596e-08,
*Elastic
206000, 0.3
*Material, name=Material-5
*Density
1.3314e-08,
*Elastic
206000, 0.3
*Material, name=Material-6
*Density
1.7724e-08,
*Elastic
206000, 0.3
*Material, name=Material-7
*Density
9.0913e-09,
*Elastic
206000, 0.3
*Material, name=Material-8
*Density
1.0001e-07,
*Elastic
206000, 0.3
*Material, name=Material-9
*Density
8.3537e-08,
*Elastic
206000, 0.3
*Distribution Table, name=BeamOrient-19_Table
ORIENTATION
*Distribution Table, name=BeamOrient-20_Table
ORIENTATION
*Distribution Table, name=BeamOrient-45_Table
ORIENTATION
*Distribution Table, name=BeamOrient-52_Table
ORIENTATION
*Distribution Table, name=BeamOrient-410_Table
ORIENTATION
*Distribution Table, name=BeamOrient-411_Table
ORIENTATION
*Distribution Table, name=BeamOrient-412_Table
ORIENTATION
*Distribution Table, name=BeamOrient-433_Table
ORIENTATION
*Distribution Table, name=BeamOrient-434_Table
ORIENTATION
*Distribution Table, name=BeamOrient-440_Table
ORIENTATION
*Distribution Table, name=BeamOrient-441_Table
ORIENTATION
*Distribution Table, name=BeamOrient-446_Table
ORIENTATION
*Distribution Table, name=BeamOrient-447_Table
ORIENTATION
*Distribution Table, name=BeamOrient-448_Table
ORIENTATION
*Distribution Table, name=BeamOrient-450_Table
ORIENTATION
*Distribution Table, name=BeamOrient-451_Table
ORIENTATION
*Distribution Table, name=BeamOrient-455_Table
ORIENTATION
*Distribution Table, name=BeamOrient-456_Table
ORIENTATION
*Distribution Table, name=BeamOrient-457_Table
ORIENTATION
**
** BOUNDARY CONDITIONS
**
** ----------------------------------------------------------------
**
** STEP:Step-1
**
*Step, name=Step-1
*Static
1, 1, 1e-05, 1
**
** BOUNDARY CONDITIONS
**
** Name: BC-1 Type: Symmetry/Antisymmetry/Encastre
*Boundary
Set-33, ENCASTRE
** 
** LOADS
** 
** Name: Load-1   Type: Gravity
*Dload
, GRAV, 10791, 0, 0, -1
** 
** OUTPUT REQUESTS
** 
*Restart, write, frequency=0
** 
**  FIELD  OUTPUT:F-Output-1
** 
*Output, field, variable=PRESELECT
*Output, history, variable=PRESELECT
*End Step
